Title: New York Times, Wednesday, April 15, 1964
Author: Unknown
Editor: Margaret Farrar
Date: 1964-04-15


#CASHEW#RAMADAN
MANHOLE#ELEVATE
ESTIVAL#DANELAW
STEVE#LEER##ALE
SANE#DDAY#STILL
ADAR#ROSEATE###
GIT#FINE#MARCUS
EVASIVE#BARNONE
SALINE#MONK#ORA
###MILLARD#SPEW
SLUES#AREA#CELA
HEN##STUB#CARAT
AGITATE#ISOLATE
LATERAN#TANAGER
ELEMENT#SEERED#


A1. Kidney-shaped nut. ~ CASHEW
A7. Sacred month of the Moslem year. ~ RAMADAN
A14. Part of the street scene. ~ MANHOLE
A15. Improve culturally. ~ ELEVATE
A16. Relating to summer. ~ ESTIVAL
A17. Part of English jurisdiction after 886. ~ DANELAW
A18. First name in TV. ~ STEVE
A19. Wanton look. ~ LEER
A21. Brew. ~ ALE
A22. Reasonable. ~ SANE
A23. Operation-launching time. ~ DDAY
A24. Type of picture. ~ STILL
A26. Jewish month. ~ ADAR
A27. Overly optimistic. ~ ROSEATE
A29. Vamoose! ~ GIT
A30. Dandy's partner. ~ FINE
A31. Name of fame in ancient Rome. ~ MARCUS
A35. Equivocal. ~ EVASIVE
A37. With no exceptions. ~ BARNONE
A38. Isotonic solution. ~ SALINE
A39. What Luther was, in 1505. ~ MONK
A40. Hour, in Italy. ~ ORA
A41. Presidential first name. ~ MILLARD
A43. Gush forth. ~ SPEW
A44. Swings around a pivot. ~ SLUES
A47. Field. ~ AREA
A48. That: Fr. ~ CELA
A49. Bird. ~ HEN
A50. Rain check. ~ STUB
A51. Jeweler's term. ~ CARAT
A52. Shake up. ~ AGITATE
A55. Quarantine. ~ ISOLATE
A57. Palace in E part of Rome. ~ LATERAN
A58. Passerine bird. ~ TANAGER
A59. Factor. ~ ELEMENT
A60. Emulate the angry man. ~ SEERED

D1. Norma's famous aria. ~ CASTADIVA
D2. Before birth. ~ ANTENATAL
D3. Tremble. ~ SHIVER
D4. Lifted, as an anchor. ~ HOVE
D5. Qua ___ (here and there): It. ~ ELA
D6. One way to serve steak. ~ WELLDONE
D7. A fish, the rudd. ~ REDEYE
D8. Winglike. ~ ALAR
D9. People. ~ MEN
D10. Forum greeting. ~ AVE
D11. Epithet for the Lama. ~ DALAI
D12. In any way. ~ ATALL
D13. Balustrade post. ~ NEWEL
D14. Those commercials. ~ MESSAGES
D20. Effortlessness. ~ EASE
D23. Stuff and nonsense. ~ DRIVEL
D24. Sharply delineated. ~ STARK
D25. Sea bird. ~ TERN
D28. One of Peregrine Pickle's conquests. ~ AMANDA
D30. The end. ~ FINIS
D32. Barrel factory. ~ COOPERAGE
D33. Lacking consanguinity. ~ UNRELATED
D34. Brine. ~ SEAWATER
D36. Record-holding runner. ~ SIME
D37. Tools for drilling rock. ~ BOREBITS
D39. Japanese merchant ship. ~ MARU
D42. Potentially active. ~ LATENT
D43. Arranged like a ladder. ~ SCALAR
D44. Fissile rock. ~ SHALE
D45. Statutory. ~ LEGAL
D46. Get together. ~ UNITE
D50. Musial. ~ STAN
D51. Volcano's peak. ~ CONE
D53. Pro ___. ~ TEM
D54. Continue. ~ ARE
D56. So: Scot. ~ SAE

