Title: New York Times, Wednesday, December 3, 1958
Author: Cora Goodman
Editor: Margaret Farrar
Date: 1958-12-03


AFAR#SWAB#CRISP
LILI#CANE#RENTE
MAIN#RINGLEADER
STAGLINE#ASPIRE
###SUBS#INTERNS
REPINE#ACCEDE##
SPADE#PLIED#CTS
VIRE#RULER#STEP
PSI#BARER#DELTA
##SLANGY#PRAYER
SCIENCE#CRAW###
PRESTO#ALABAMAN
LANTERNJAW#TARO
INNER#EARN#ENTO
TEERS#TRES#RUSK


A1. Distant. ~ AFAR
A5. Mop. ~ SWAB
A9. Bracing. ~ CRISP
A14. Caron movie role. ~ LILI
A15. Stick. ~ CANE
A16. Income: Fr. ~ RENTE
A17. The high sea: Poet. ~ MAIN
A18. Rebel chief. ~ RINGLEADER
A20. Debutante's delight. ~ STAGLINE
A22. Reach toward. ~ ASPIRE
A23. Naval units: Colloq. ~ SUBS
A24. Doctors in training. ~ INTERNS
A25. Languish. ~ REPINE
A28. Agree. ~ ACCEDE
A29. Implement. ~ SPADE
A30. Worked at steadily. ~ PLIED
A31. Coins: Abbr. ~ CTS
A34. Arrow feathered to give rotary motion. ~ VIRE
A35. Desk accessory. ~ RULER
A36. Stride. ~ STEP
A37. Greek letter. ~ PSI
A38. More desolate. ~ BARER
A39. Greek letter. ~ DELTA
A40. Given to argot. ~ SLANGY
A42. Angelus. ~ PRAYER
A43. Branch of learning. ~ SCIENCE
A45. Maw. ~ CRAW
A46. Quickly. ~ PRESTO
A47. Native of Montgomery. ~ ALABAMAN
A51. Facial characteristic. ~ LANTERNJAW
A53. Elephant's-ear. ~ TARO
A54. ___ sanctum. ~ INNER
A55. Merit. ~ EARN
A56. Inner: Comb. form. ~ ENTO
A57. Golfers about to drive. ~ TEERS
A58. Three: Span. ~ TRES
A59. A kind of sweet biscuit. ~ RUSK

D1. Charity. ~ ALMS
D2. Edict. ~ FIAT
D3. Inter ___. ~ ALIA
D4. Choice kind of seat. ~ RINGSIDE
D5. Writer. ~ SCRIBE
D6. Old-time wagons. ~ WAINS
D7. English queen. ~ ANNE
D8. Command to a dog. ~ BEG
D9. Having a topknot. ~ CRESTED
D10. Cut, as grain. ~ REAPED
D11. In a roundabout manner. ~ INDIRECTLY
D12. Austere. ~ STERN
D13. Fathers: Fr. ~ PERES
D19. Soldier in the Queen's service. ~ LANCER
D21. Crescent-shaped figure. ~ LUNE
D24. Colder. ~ ICIER
D25. Inviter's abbreviation. ~ RSVP
D26. Religious group: Abbr. ~ EPIS
D27. Bon Marché customer. ~ PARISIENNE
D28. Part of a tennis court. ~ ALLEY
D30. Cleanse. ~ PURGE
D32. Head: Fr. ~ TETE
D33. Box. ~ SPAR
D35. Animosity. ~ RANCOR
D36. Impractical source of gold. ~ SEAWATER
D38. Engages in raillery. ~ BANTERS
D39. Colorless. ~ DRAB
D41. Pearson of Cananda. ~ LESTER
D42. Crustaceans. ~ PRAWNS
D43. Rift. ~ SPLIT
D44. Wading bird. ~ CRANE
D45. County of Ireland. ~ CLARE
D47. Partly open. ~ AJAR
D48. By hand: Comb. form. ~ MANU
D49. Painting, drawing, etc. ~ ARTS
D50. Corner. ~ NOOK
D52. Gain. ~ NET

