Title: New York Times, Monday, September 17, 1962
Author: Unknown
Editor: Margaret Farrar
Date: 1962-09-17


CHAS#NASAL#SWAG
HALT#ENURE#HOLO
ARMAGEDDON#INTO
#PARED#SMILEDON
###TALL#ANISE##
ARBOREAL#INTROD
TALUS#BURST#MBA
STAT#MONET#SEER
EON#MARGE#SENSE
ANKLET#EDUCATED
##VISTA#SNOW###
PIESHELL#IRATE#
HART#REASONTHAT
ESSE#ONION#EASY
WIEN#FERNS#RITE


A1. Man's name: Abbr. ~ CHAS
A5. Like the sound of "ng." ~ NASAL
A10. Boodle. ~ SWAG
A14. Cease. ~ HALT
A15. Take effect. ~ ENURE
A16. Entire: Prefix. ~ HOLO
A17. Great, decisive battle. ~ ARMAGEDDON
A19. Come ___ (get). ~ INTO
A20. Peeled. ~ PARED
A21. Regarded with favor. ~ SMILEDON
A23. High-flown: Colloq. ~ TALL
A25. Carrot plant. ~ ANISE
A26. Like a tree. ~ ARBOREAL
A30. Preface: Abbr. ~ INTROD
A33. Anklebone. ~ TALUS
A34. A sudden activity. ~ BURST
A36. Business degree: Abbr. ~ MBA
A37. Law: Abbr. ~ STAT
A38. French impressionist. ~ MONET
A39. Fortuneteller. ~ SEER
A40. Long time. ~ EON
A41. Oleo, in Britain. ~ MARGE
A42. Feel. ~ SENSE
A43. Sock. ~ ANKLET
A45. Lettered. ~ EDUCATED
A47. Panorama. ~ VISTA
A49. Weather word. ~ SNOW
A50. Container of a sort, for apples, etc. ~ PIESHELL
A53. Choleric. ~ IRATE
A56. Red deer. ~ HART
A57. Infer the truth of. ~ REASONTHAT
A60. In ___ (in existence). ~ ESSE
A61. Hamburger embellishment. ~ ONION
A62. Tolerant. ~ EASY
A63. Vienna. ~ WIEN
A64. Bracken. ~ FERNS
A65. Formal observance. ~ RITE

D1. Part of a dance. ~ CHA
D2. Lyra. ~ HARP
D3. Fostering: Lat. ~ ALMA
D4. Begin. ~ STARTOUT
D5. Compass pointer. ~ NEEDLE
D6. "___ how!" ~ AND
D7. Washday word. ~ SUDS
D8. Scent. ~ AROMA
D9. Russian, circa 1920. ~ LENINIST
D10. Most retiring. ~ SHIEST
D11. A marvel. ~ WONDERMENT
D12. Choir voice. ~ ALTO
D13. Continue. ~ GOON
D18. Low and high. ~ GEARS
D22. Fluff. ~ LINT
D24. W. Willard Wirtz' concern. ~ LABOR
D26. Yachting. ~ ATSEA
D27. New Mexico town. ~ RATON
D28. Milton specialty. ~ BLANKVERSE
D29. Sudden thrust. ~ LUNGE
D31. Plump plus. ~ OBESE
D32. Challenged. ~ DARED
D35. Grasses. ~ REEDS
D38. ___ course. ~ MATTEROF
D39. Mermaid's habitat. ~ SEAWATER
D41. Interlock. ~ MESH
D42. Disdain. ~ SCORN
D44. Take advice. ~ LISTEN
D46. See 24 Down. ~ UNIONS
D48. Coeur d'___, Idaho. ~ ALENE
D50. Exclamation of many meanings. ~ PHEW
D51. Romanian city. ~ IASI
D52. Den. ~ LAIR
D54. People of Asia. ~ THAI
D55. Down ___. ~ EAST
D58. Offspring. ~ SON
D59. Nautical chain or rope. ~ TYE

