Title: New York Times, Thursday, November 1, 1956
Author: Albert Blum
Editor: Margaret Farrar
Date: 1956-11-01


THEATRE##SMITES
RECREATE#PANADA
ARCADIAN#ANTLER
PEEP#STEED#ULNA
###AXIS#LEERY##
CASHIN#ROMANCER
ALTOS#CAPER#LEI
MORE#OATEN#BERG
UNE#PURER#TORII
SEAWATER#LOOKED
##MANSE#DIPS###
JELL#INCAS#TOTO
EXILED#INTREPID
TINORE#STEERAGE
STEWER##ENISLES


A1. One of the arts. ~ THEATRE
A8. Affects with strong feeling. ~ SMITES
A14. Put fresh life into. ~ RECREATE
A16. Dish of flavored bread. ~ PANADA
A17. Possessor of pastoral tastes. ~ ARCADIAN
A18. Moose horn. ~ ANTLER
A19. Chirp. ~ PEEP
A20. Rosinante, for example. ~ STEED
A22. Bone. ~ ULNA
A23. Rome-Berlin-Tokyo alignment. ~ AXIS
A25. Suspicious: Colloq. ~ LEERY
A27. Get money for. ~ CASHIN
A30. Indulger in fanciful tales. ~ ROMANCER
A33. Tenor violins. ~ ALTOS
A34. Frisk. ~ CAPER
A35. Hawaii symbol. ~ LEI
A36. Greater. ~ MORE
A37. Made of cereal grain. ~ OATEN
A38. Patty of golfing fame. ~ BERG
A39. One: Fr. ~ UNE
A40. Clearer. ~ PURER
A41. Gateway of a Shinto temple. ~ TORII
A42. Brine. ~ SEAWATER
A44. Appeared. ~ LOOKED
A45. Parsonage. ~ MANSE
A46. Candles. ~ DIPS
A47. Take definite form: Colloq. ~ JELL
A49. Ancient Peruvians. ~ INCAS
A51. In ___. ~ TOTO
A55. Banished. ~ EXILED
A57. British warship, sunk to blockade Zeebrugge, 1918. ~ INTREPID
A59. Cassiterite. ~ TINORE
A60. Part of an ocean liner. ~ STEERAGE
A61. Worried one. ~ STEWER
A62. Places apart. ~ ENISLES

D1. Links hazard. ~ TRAP
D2. On earth. ~ HERE
D3. Behold: Lat. ~ ECCE
D4. Wyoming Indian. ~ ARAPAHOE
D5. Jockey Atkinson. ~ TED
D6. ___ bread. ~ RAISIN
D7. ___ Unis. ~ ETATS
D8. Ground breakers. ~ SPADEMEN
D9. Isle in the Irish Sea. ~ MAN
D10. Phrase akin to "first come, first served." ~ INTURN
D11. Vote recorder. ~ TALLYCLERK
D12. Robert Anthony. ~ EDEN
D13. Girl's name meaning princess. ~ SARA
D15. Chemical suffix. ~ ENE
D21. Marital runaway. ~ ELOPER
D24. Greek letters. ~ XIS
D26. ___ shell. ~ EAR
D27. Modern French author. ~ CAMUS
D28. Unaccompanied. ~ ALONE
D29. Having a certain contour. ~ STREAMLINE
D30. Combining form used with first-, second-, etc. ~ RATER
D31. Ghostly. ~ EERIE
D32. Unyielding. ~ RIGID
D34. Tip. ~ CAREEN
D37. Colin Wilson's "The ___." ~ OUTSIDER
D38. Amplifiers, in radio. ~ BOOSTERS
D40. God of the woodlands. ~ PAN
D41. Outdo. ~ TOP
D43. Mud hole for animals. ~ WALLOW
D44. Attend closely. ~ LISTEN
D46. Italian poet. ~ DANTE
D47. Skyhawks. ~ JETS
D48. Departure. ~ EXIT
D50. On this side: Prefix. ~ CIS
D52. Gem. ~ OPAL
D53. Buster Brown's dog. ~ TIGE
D54. Golden Treasury items. ~ ODES
D56. Before. ~ ERE
D58. Defendants: Lat. ~ REI

